50
	Energy: -1853011.1880333
C         -9.76612        0.85551       -0.10527
C         -8.28895        0.69105       -0.10661
O        -10.54827       -0.04578        0.08391
O        -10.13034        2.12024       -0.33851
C         -7.47647        1.84427       -0.34524
N         -6.81124        2.77499       -0.53788
C         -7.78095       -0.55070        0.11929
C         -6.42703       -1.00361        0.17707
S         -5.00212       -0.01530       -0.02924
C         -6.07066       -2.32248        0.41525
C         -4.67960       -2.53636        0.42530
C         -3.95556       -1.38011        0.19266
C         -2.49936       -1.22693        0.13942
C         -1.66585       -2.17112        0.76204
C         -1.89278       -0.14883       -0.52482
C         -0.28540       -2.04230        0.72891
H         -2.10380       -3.00310        1.31441
C         -0.51257       -0.01827       -0.57201
H         -2.50690        0.59047       -1.04275
C          0.31399       -0.96279        0.05835
H          0.33879       -2.77599        1.23909
H         -0.06574        0.81832       -1.10908
N          1.71337       -0.82383        0.02442
C          2.30293        0.46777        0.02828
C          3.35490        0.76343       -0.84635
C          1.84404        1.45314        0.91048
C          3.94456        2.02468       -0.83895
H          3.71447       -0.00115       -1.53618
C          2.41621        2.72189        0.90862
H          1.03037        1.22471        1.59998
C          3.46670        3.00006        0.03488
H          4.76263        2.24944       -1.52294
H          2.05330        3.48603        1.59557
C          2.55420       -1.96303       -0.00730
C          3.71886       -1.99823        0.77000
C          2.24062       -3.05785       -0.82338
C          4.56262       -3.10453        0.73017
H          3.96742       -1.15050        1.40941
C          3.06888       -4.17582       -0.85422
H          1.34092       -3.03404       -1.43917
C          4.22643       -4.18690       -0.07922
H          5.46740       -3.12573        1.33665
H          2.82065       -5.02396       -1.49139
Br         4.25111        4.73926        0.03270
Br         5.37320       -5.70939       -0.13231
H         -8.53403       -1.32687        0.28499
H        -11.10329        2.15276       -0.32372
H         -6.81440       -3.10404        0.56706
H         -4.21620       -3.50979        0.57234
Cl         5.52139        7.86163        0.02040
