49
	Energy: -1411403.0949936
C        -10.09371       -0.41561       -0.36463
C         -8.60416       -0.32728       -0.31658
O        -10.72525       -1.33311        0.09807
O        -10.63277        0.63841       -0.97821
C         -7.97212        0.81607       -0.90255
N         -7.45114        1.73814       -1.37461
C         -7.92375       -1.33716        0.27974
C         -6.51058       -1.51441        0.46627
S         -5.27220       -0.41308       -0.05352
C         -5.95937       -2.62058        1.09971
C         -4.55848       -2.58227        1.16394
C         -4.02278       -1.44185        0.57859
C         -2.62192       -1.07899        0.46448
C         -2.21943        0.12133       -0.16721
C         -1.61964       -1.93104        0.98772
C         -0.89101        0.46311       -0.27085
H         -2.96243        0.79058       -0.60191
C         -0.28664       -1.61120        0.87959
H         -1.89355       -2.85012        1.50198
C          0.10348       -0.40312        0.24834
H         -0.60008        1.37385       -0.79244
H          0.46815       -2.26292        1.31755
N          1.44085       -0.07423        0.13793
C          2.43011       -1.08583        0.04706
C          3.62522       -0.94971        0.76665
C          2.21117       -2.19940       -0.77588
C          4.59653       -1.93712        0.67368
H          3.78048       -0.08497        1.41206
C          3.18538       -3.18457       -0.87103
H          1.29313       -2.27742       -1.35890
C          4.37093       -3.04876       -0.14380
H          5.51991       -1.84187        1.24301
H          3.02292       -4.04362       -1.52039
C          1.85477        1.28132        0.10807
C          2.84936        1.67969       -0.79594
C          1.27981        2.20348        0.99371
C          3.25952        3.00555       -0.82257
H          3.28085        0.95702       -1.48879
C          1.69405        3.52867        0.96871
H          0.53244        1.87614        1.71693
C          2.67956        3.92238        0.05965
H          4.02104        3.32129       -1.53411
H          1.25914        4.24367        1.66546
I          5.84572       -4.53542       -0.28877
I          3.30732        5.92434        0.02535
H         -8.54858       -2.14123        0.67884
H        -11.59990        0.52270       -0.97687
H         -6.57137       -3.42779        1.49892
H         -3.96019       -3.36465        1.62454
