50
	Energy: -1907197.2388887
C         -9.07451        1.24619       -0.12958
C         -7.60656        1.01338       -0.12033
O         -9.89859        0.38646        0.07445
O         -9.37841        2.52130       -0.39086
C         -6.74064        2.12289       -0.37747
N         -6.03224        3.01793       -0.58471
C         -7.15801       -0.24608        0.13208
C         -5.82705       -0.76074        0.20375
S         -4.35684        0.15560       -0.01603
C         -5.53350       -2.09064        0.46543
C         -4.15414       -2.36962        0.48184
C         -3.37584       -1.25293        0.23114
C         -1.91403       -1.17101        0.17484
C         -1.25684       -0.12349       -0.49020
C         -1.12614       -2.15691        0.79246
C          0.12802       -0.06291       -0.54503
H         -1.83503        0.64716       -1.00372
C          0.25869       -2.09867        0.75079
H         -1.60241       -2.96673        1.34596
C          0.90850       -1.05068        0.07720
H          0.61382        0.75089       -1.08331
H          0.84823       -2.86452        1.25495
N          2.31326       -0.98925        0.03072
C          3.08522       -2.17564       -0.03153
C          4.25483       -2.29506        0.72995
C          2.69598       -3.23441       -0.86239
C          5.02841       -3.44962        0.66012
H          4.56195       -1.47526        1.38012
C          3.45336       -4.39982       -0.92234
H          1.79209       -3.14472       -1.46567
C          4.61638       -4.49445       -0.16249
H          5.93826       -3.54221        1.25214
H          3.15078       -5.22337       -1.56814
C          2.97494        0.26614        0.03394
C          4.03829        0.50475       -0.84491
C          2.57635        1.27377        0.92090
C          4.69899        1.72963       -0.83599
H          4.35089       -0.27623       -1.53899
C          3.21929        2.50757        0.92092
H          1.75413        1.08988        1.61336
C          4.27988        2.72480        0.04389
H          5.52647        1.91596       -1.51991
H          2.90838        3.29275        1.60938
Cl         5.57990       -5.95450       -0.24549
Cl         5.09625        4.27266        0.04743
H         -7.94725       -0.98284        0.30894
H        -10.34882        2.59955       -0.38161
H         -6.31324       -2.83378        0.62909
H         -3.73803       -3.36139        0.64645
Cl         6.71203        7.36913        0.04539
