49
	Energy: -1563886.4450897
C         -9.52943       -0.12623       -0.18327
C         -8.04485       -0.05644       -0.15589
O        -10.16517       -1.12826        0.04360
O        -10.08088        1.05197       -0.48997
C         -7.41768        1.19759       -0.44112
N         -6.90181        2.21105       -0.67047
C         -7.35403       -1.19077        0.13842
C         -5.94705       -1.42261        0.23378
S         -4.69020       -0.23477       -0.00795
C         -5.39395       -2.65721        0.53812
C         -3.98679       -2.65099        0.56862
C         -3.44778       -1.40819        0.28625
C         -2.03157       -1.03518        0.22961
C         -1.06617       -1.82332        0.87836
C         -1.59453        0.10136       -0.46940
C          0.27935       -1.49039        0.83219
H         -1.37362       -2.69402        1.45833
C         -0.24916        0.43556       -0.52873
H         -2.31306        0.72348       -1.00649
C          0.70872       -0.35683        0.12289
H          1.00878       -2.10633        1.35849
H          0.06752        1.31215       -1.09398
N          2.07606       -0.02224        0.06750
C          2.48107        1.33550        0.05756
C          3.50195        1.76122       -0.80151
C          1.87049        2.26305        0.91146
C          3.91414        3.09066       -0.80434
H          3.97863        1.04515       -1.47187
C          2.26302        3.59808        0.90053
H          1.08064        1.93659        1.58883
C          3.28625        3.99910        0.04447
H          4.70888        3.41649       -1.47446
H          1.78443        4.31533        1.56642
C          3.05889       -1.04095        0.00379
C          4.23417       -0.93515        0.75824
C          2.86895       -2.15885       -0.81859
C          5.20897       -1.92631        0.68975
H          4.38702       -0.06884        1.40283
C          3.82964       -3.16398       -0.87738
H          1.96039       -2.24323       -1.41578
C          4.99456       -3.03610       -0.12432
H          6.12112       -1.83926        1.27919
H          3.67607       -4.03191       -1.51765
Br         3.83824        5.82421        0.03569
Br         6.31887       -4.40512       -0.20772
H         -7.97965       -2.06700        0.33317
H        -11.04717        0.93280       -0.49071
H         -6.00927       -3.53738        0.72164
H         -3.38064       -3.53295        0.76484
