49
	Energy: -1165679.2935955
C          8.35450        0.39665        0.20348
C          6.86896        0.30810        0.16365
O          8.94609       -0.75666       -0.11722
O          8.94897        1.40571        0.49471
C          6.19257        1.52727        0.49703
N          5.63864        2.50955        0.76491
C          6.22351       -0.83965       -0.16385
C          4.81391       -1.10751       -0.25313
S          3.53689        0.03252        0.04999
C          4.29882       -2.34601       -0.60800
C          2.89457       -2.37700       -0.63728
C          2.32381       -1.15942       -0.29905
C          0.90676       -0.83498       -0.22332
C          0.45581        0.36143        0.37666
C         -0.05293       -1.72576       -0.75523
C         -0.88694        0.66378        0.44273
H          1.16869        1.05332        0.82631
C         -1.39926       -1.44359       -0.68686
H          0.26581       -2.63700       -1.25835
C         -1.83781       -0.23928       -0.08728
H         -1.21951        1.57172        0.94437
H         -2.12375       -2.12175       -1.13613
N         -3.19227        0.05434       -0.02030
C         -4.14822       -0.98244        0.08956
C         -5.33701       -0.90744       -0.65450
C         -3.90433       -2.06505        0.95054
C         -6.27636       -1.92117       -0.54760
H         -5.50548       -0.06915       -1.33029
C         -4.84475       -3.07792        1.06165
H         -2.99308       -2.09240        1.54795
C         -6.00952       -2.98485        0.30808
H         -7.20098       -1.90399       -1.12196
H         -4.69476       -3.92365        1.73052
C         -3.64152        1.39460       -0.06105
C         -4.68288        1.80027        0.78985
C         -3.05227        2.29916       -0.95986
C         -5.12666        3.11277        0.75102
H         -5.11939        1.09164        1.49352
C         -3.49738        3.61157       -1.00230
H         -2.26955        1.96168       -1.63920
C         -4.52362        3.99039       -0.14412
H         -5.92012        3.46571        1.40754
H         -3.07349        4.33481       -1.69684
F         -6.92076       -3.96479        0.41399
F         -4.95511        5.26069       -0.18346
H          4.93716       -3.19871       -0.83432
H          2.31831       -3.26716       -0.87926
H          6.85928       -1.69649       -0.39735
H          9.90786       -0.61531       -0.06821
