50
	Energy: -1597156.4328858
C          9.94726       -4.38165       -0.16443
C          8.65223       -3.65245       -0.14993
O         11.01767       -3.86682        0.05704
O          9.78990       -5.67753       -0.45162
C          7.45586       -4.38532       -0.43078
N          6.48158       -4.97287       -0.65751
C          8.66830       -2.32111        0.12972
C          7.59922       -1.37695        0.21523
S          5.90276       -1.71922       -0.01849
C          7.78610       -0.03403        0.50620
C          6.59022        0.70735        0.53364
C          5.47277       -0.06270        0.26223
C          4.07461        0.37266        0.20951
C          3.09543       -0.36262       -0.47760
C          3.67944        1.55781        0.85267
C          1.77765        0.06834       -0.53044
H          3.36952       -1.27529       -1.01034
C          2.36259        1.99019        0.81318
H          4.40651        2.13601        1.42367
C          1.39076        1.25340        0.11564
H          1.03980       -0.51037       -1.08619
H          2.07615        2.90248        1.33664
N          0.05455        1.69262        0.06892
C         -0.24842        3.07519        0.02604
C         -1.31299        3.58588        0.77962
C          0.50135        3.94434       -0.77705
C         -1.62972        4.94054        0.72857
H         -1.89981        2.91630        1.40952
C          0.20205        5.30311       -0.81850
H          1.32587        3.55405       -1.37477
C         -0.86613        5.79332       -0.06770
H         -2.46058        5.32391        1.32003
H          0.79324        5.96747       -1.44795
C         -1.00808        0.75210        0.05153
C         -2.08309        0.92162       -0.82865
C         -0.99708       -0.34658        0.91912
C         -3.13813        0.01282       -0.83603
H         -2.09429        1.77360       -1.50981
C         -2.04071       -1.26804        0.90130
H         -0.16516       -0.48010        1.61191
C         -3.11306       -1.08384        0.02691
H         -3.96965        0.15827       -1.52560
H         -2.01943       -2.11866        1.58253
I         -1.33365        7.84861       -0.14058
I         -4.70955       -2.47111        0.01440
H          9.66360       -1.90894        0.32100
H         10.67216       -6.08918       -0.44359
H          8.77492        0.38774        0.68325
H          6.54485        1.77821        0.72043
I         -7.53465       -4.95696        0.00583
