50
	Energy: -1749509.9424751
C          9.66372       -3.90064       -0.14912
C          8.35385       -3.19846       -0.13770
O         10.72378       -3.36165        0.06450
O          9.53254       -5.20214       -0.42390
C          7.17243       -3.95841       -0.40951
N          6.21017       -4.56804       -0.62923
C          8.34245       -1.86462        0.13026
C          7.25340       -0.94304        0.20981
S          5.56431       -1.32471       -0.01673
C          7.41117        0.40638        0.48775
C          6.19932        1.12146        0.51095
C          5.09840        0.32443        0.24962
C          3.69068        0.72748        0.19671
C          3.27065        1.91121        0.82654
C          2.72592       -0.03848       -0.47715
C          1.94407        2.31273        0.78727
H          3.98631        2.51328        1.38718
C          1.39836        0.36112       -0.52966
H          3.01869       -0.95134       -0.99961
C          0.98647        1.54489        0.10352
H          1.63898        3.22490        1.30028
H          0.67222       -0.24151       -1.07526
N         -0.35926        1.95284        0.05712
C         -1.40086        0.98933        0.04542
C         -2.47923        1.13076       -0.83588
C         -1.36571       -0.10397        0.91961
C         -3.51329        0.19880       -0.84078
H         -2.50922        1.97895       -1.52095
C         -2.38650       -1.04998        0.90590
H         -0.53176       -0.21443        1.61383
C         -3.45721       -0.88979        0.02766
H         -4.35047        0.31433       -1.52860
H         -2.35384       -1.89929        1.58794
C         -0.69378        3.32848        0.00539
C         -1.75959        3.82180        0.76867
C          0.02596        4.20566       -0.81624
C         -2.10699        5.16831        0.71028
H         -2.32262        3.14459        1.41185
C         -0.30270        5.55707       -0.86572
H          0.85046        3.82698       -1.42130
C         -1.37057        6.02576       -0.10364
H         -2.93691        5.54641        1.30636
H          0.26042        6.23464       -1.50667
Br        -4.86424       -2.18010        0.01550
Br        -1.83306        7.87405       -0.17713
H          9.32910       -1.42960        0.31563
H         10.42313       -5.59541       -0.41448
H          8.39079        0.85150        0.65862
H          6.13093        2.19282        0.68774
I         -7.61376       -4.71514        0.01288
