49
	Energy: -1411531.5650386
C        -10.12105       -0.34541       -0.51221
C         -8.63698       -0.27492       -0.46666
O        -10.78886       -1.04433        0.21256
O        -10.63248        0.45710       -1.45067
C         -7.96904        0.59688       -1.38372
N         -7.42047        1.30131       -2.12449
C         -7.98571       -1.04345        0.44769
C         -6.58960       -1.18023        0.71972
S         -5.29433       -0.35488       -0.11078
C         -6.07982       -2.00933        1.70704
C         -4.67586       -1.97786        1.79858
C         -4.09405       -1.12187        0.87966
C         -2.66773       -0.84134        0.68806
C         -2.22545        0.27302       -0.04275
C         -1.69662       -1.69161        1.24306
C         -0.87322        0.52773       -0.21975
H         -2.94777        0.96039       -0.48708
C         -0.34276       -1.43440        1.08594
H         -1.99968       -2.57273        1.80883
C          0.09004       -0.32065        0.34819
H         -0.55694        1.39436       -0.80025
H          0.39062       -2.10368        1.53597
N          1.46396       -0.05822        0.18139
C          2.39031       -1.12321        0.06040
C          3.62100       -1.06390        0.72599
C          2.09176       -2.23912       -0.73172
C          4.54444       -2.09764        0.59737
H          3.85855       -0.20005        1.34791
C          3.00242       -3.28539       -0.84952
H          1.13880       -2.28900       -1.25981
C          4.22715       -3.20597       -0.18706
H          5.49861       -2.03834        1.12011
H          2.75770       -4.14737       -1.46947
C          1.93675        1.27725        0.13750
C          2.90243        1.65166       -0.80486
C          1.45090        2.23213        1.03927
C          3.38281        2.95786       -0.84334
H          3.28206        0.91376       -1.51266
C          1.91252        3.54456        0.99428
H          0.70461        1.94569        1.78125
C          2.88035        3.89886        0.05457
H          4.13419        3.23615       -1.58169
H          1.52642        4.27790        1.70154
I          5.61925       -4.77854       -0.37680
I          3.59224        5.88293       -0.00709
H         -8.63944       -1.65545        1.07629
H        -11.60089        0.36026       -1.42381
H         -6.72407       -2.61288        2.34552
H         -4.10622       -2.54916        2.52822
