50
	Energy: -1351427.6019115
C         -8.96034       -3.84594        0.10401
C         -7.73585       -3.00988        0.08557
O        -10.07867       -3.13204       -0.07218
O         -8.94951       -5.04429        0.26134
C         -6.51620       -3.73778        0.27079
N         -5.52659       -4.32367        0.42017
C         -7.78241       -1.66072       -0.09401
C         -6.72484       -0.70017       -0.14303
S         -5.01677       -1.03430        0.00707
C         -6.93624        0.65856       -0.32403
C         -5.75130        1.41708       -0.33416
C         -4.61533        0.64506       -0.16008
C         -3.22192        1.09311       -0.12045
C         -2.20718        0.31183        0.45571
C         -2.86178        2.33841       -0.66305
C         -0.89268        0.75176        0.49710
H         -2.44939       -0.65064        0.91081
C         -1.54957        2.78386       -0.63387
H         -3.61550        2.95957       -1.14807
C         -0.53895        1.99864       -0.04889
H         -0.13099        0.13103        0.96818
H         -1.29671        3.74541       -1.08010
N          0.78742        2.44826       -0.01355
C          1.08475        3.83729        0.03276
C          2.06832        4.36858       -0.80967
C          0.41602        4.67764        0.93148
C          2.38729        5.72294       -0.75550
H          2.58948        3.71267       -1.50785
C          0.71189        6.03714        0.97818
H         -0.34303        4.26235        1.59531
C          1.69629        6.53027        0.13484
H          3.15130        6.15389       -1.40141
H          0.20124        6.70703        1.66897
C          1.86942        1.52605       -0.00591
C          2.91544        1.68467        0.91040
C          1.90708        0.46888       -0.92339
C          3.99289        0.80255        0.91059
H          2.88516        2.50914        1.62359
C          2.96878       -0.43151       -0.91704
H          1.09663        0.35092       -1.64357
C          3.99306       -0.24187       -0.00123
H          4.81758        0.91097        1.61401
H          3.01536       -1.26137       -1.62120
F          1.99536        7.85191        0.18496
F          5.03470       -1.10888        0.00014
H         -7.93540        1.07868       -0.43469
H         -5.72597        2.49960       -0.43997
H         -8.78021       -1.23481       -0.22289
H        -10.82485       -3.75598       -0.04692
I          8.81968       -3.73353       -0.02331
