49
	Energy: -1618077.1853736
C         -8.79693        0.13343       -0.16874
C         -7.31140        0.17700       -0.14354
O         -9.44968       -0.86028        0.04621
O         -9.32849        1.32496       -0.45881
C         -6.66305        1.42352       -0.41386
N         -6.13015        2.43076       -0.63143
C         -6.63998       -0.97323        0.13404
C         -5.23737       -1.23129        0.22333
S         -3.95992       -0.06220       -0.00215
C         -4.70557       -2.48019        0.50683
C         -3.29859       -2.49944        0.53438
C         -2.73774       -1.26193        0.27110
C         -1.31539       -0.91340        0.21701
C         -0.86074        0.23360       -0.45311
C         -0.36082       -1.73622        0.83834
C          0.48999        0.54529       -0.51065
H         -1.57017        0.88353       -0.96900
C          0.99024       -1.42689        0.79351
H         -0.68057       -2.61704        1.39592
C          1.43726       -0.28181        0.11349
H          0.81899        1.43132       -1.05361
H          1.71064       -2.07069        1.29844
N          2.80923        0.02884        0.06045
C          3.77527       -1.00513       -0.02477
C          4.94998       -0.93456        0.73449
C          3.57122       -2.09915       -0.87535
C          5.91189       -1.93571        0.64112
H          5.11248       -0.08665        1.40072
C          4.51911       -3.11418       -0.95916
H          2.66249       -2.15561       -1.47542
C          5.68429       -3.01961       -0.20265
H          6.82645       -1.88093        1.23050
H          4.36121       -3.96515       -1.62079
C          3.24022        1.37917        0.06016
C          4.25740        1.79462       -0.80821
C          2.66027        2.30816        0.93368
C          4.69558        3.11536       -0.80145
H          4.71046        1.07678       -1.49277
C          3.07893        3.63489        0.93220
H          1.87387        1.98878        1.61829
C          4.09728        4.02500        0.06623
H          5.48705        3.43905       -1.47642
H          2.62806        4.35794        1.61102
Cl         6.88803       -4.28591       -0.31802
Cl         4.63685        5.69069        0.06994
H         -7.28074       -1.84082        0.31795
H        -10.29667        1.22234       -0.45899
H         -5.33597       -3.35225        0.67753
H         -2.70830       -3.39525        0.71541
