49
	Energy: -1165805.6789850
C          8.39215        0.40368        0.14182
C          6.91194        0.32253        0.10319
O          8.98140       -0.78623       -0.02529
O          9.00116        1.43447        0.30744
C          6.24311        1.57674        0.28063
N          5.69832        2.59046        0.42363
C          6.25577       -0.85575       -0.08507
C          4.85415       -1.13039       -0.14932
S          3.56429        0.03866       -0.00459
C          4.33359       -2.40174       -0.33937
C          2.92714       -2.43776       -0.35955
C          2.35326       -1.19022       -0.18419
C          0.92861       -0.85306       -0.14961
C          0.46288        0.33914        0.42793
C         -0.02194       -1.73173       -0.69680
C         -0.89005        0.64187        0.46742
H          1.16709        1.03654        0.88610
C         -1.37560       -1.43486       -0.66896
H          0.30320       -2.65180       -1.18358
C         -1.83562       -0.24200       -0.08169
H         -1.22237        1.56581        0.94007
H         -2.08905       -2.12628       -1.11708
N         -3.20525        0.05503       -0.04651
C         -4.16983       -0.98596        0.03157
C         -5.29537       -0.95960       -0.80024
C         -4.01276       -2.03070        0.95060
C         -6.25905       -1.96111       -0.71448
H         -5.41676       -0.14480       -1.51487
C         -4.95907       -3.04866        1.02889
H         -3.14065       -2.04607        1.60524
C         -6.06628       -2.98887        0.19592
H         -7.14283       -1.95673       -1.35137
H         -4.85341       -3.87074        1.73580
C         -3.65905        1.40135       -0.04594
C         -4.64728        1.80719        0.85879
C         -3.13609        2.32556       -0.95917
C         -5.11450        3.11898        0.85181
H         -5.05490        1.08708        1.56910
C         -3.58024        3.64474       -0.95927
H         -2.37328        2.00761       -1.67076
C         -4.56523        4.01248       -0.05469
H         -5.88441        3.45244        1.54660
H         -3.18354        4.37837       -1.66006
F         -6.99678       -3.97174        0.27702
F         -5.00863        5.29386       -0.05889
H          4.97187       -3.27792       -0.44889
H          2.34649       -3.35084       -0.47265
H          6.89067       -1.73639       -0.20728
H          9.94235       -0.63932        0.01558
