50
	Energy: -1351302.1526783
C         -8.93111       -3.70757        0.22764
C         -7.69253       -2.88293        0.18263
O        -10.01604       -3.02552       -0.14745
O         -8.94210       -4.86562        0.56715
C         -6.50258       -3.57831        0.57674
N         -5.53686       -4.13534        0.89389
C         -7.70556       -1.58238       -0.20441
C         -6.62082       -0.64508       -0.31068
S         -4.95110       -0.97159        0.04674
C         -6.79052        0.66711       -0.72847
C         -5.59241        1.39993       -0.76134
C         -4.49435        0.65224       -0.36392
C         -3.10898        1.09010       -0.27208
C         -2.12528        0.29470        0.35591
C         -2.72200        2.33653       -0.81449
C         -0.81561        0.71468        0.44104
H         -2.39717       -0.65785        0.81163
C         -1.41962        2.77592       -0.72711
H         -3.44809        2.95564       -1.33839
C         -0.44351        1.96847       -0.09713
H         -0.07805        0.10675        0.96346
H         -1.12961        3.72216       -1.18221
N          0.87025        2.40537       -0.00592
C          1.16328        3.78565        0.09593
C          2.24187        4.31786       -0.62918
C          0.38441        4.60242        0.93196
C          2.53474        5.66899       -0.52792
H          2.82761        3.67483       -1.28586
C          0.67835        5.95339        1.03724
H         -0.42771        4.16907        1.51571
C          1.74615        6.45761        0.30320
H          3.35337        6.11803       -1.08767
H          0.10522        6.61206        1.68746
C          1.93967        1.48051       -0.00727
C          3.02091        1.67507        0.86832
C          1.91656        0.38930       -0.89181
C          4.07315        0.77325        0.86808
H          3.01684        2.51663        1.56086
C          2.97029       -0.51167       -0.89577
H          1.08838        0.27044       -1.59044
C          4.02512       -0.30126       -0.01433
H          4.91909        0.88389        1.54432
H          2.99273       -1.35947       -1.57832
F          2.03166        7.76543        0.40428
F          5.04542       -1.17196       -0.01791
H         -7.76516        1.07175       -0.99686
H         -5.53742        2.44699       -1.05009
H         -8.68075       -1.17499       -0.47999
H        -10.77559       -3.63165       -0.09167
I          8.51724       -3.75563       -0.05768
