50
	Energy: -1597029.4325496
C          9.95237       -4.31505       -0.27937
C          8.65059       -3.58617       -0.24922
O         10.99620       -3.83928        0.09398
O          9.81864       -5.54916       -0.76708
C          7.48133       -4.26359       -0.72251
N          6.52891       -4.80397       -1.10389
C          8.64104       -2.31567        0.22480
C          7.55258       -1.38994        0.36802
S          5.89280       -1.70019       -0.04376
C          7.70825       -0.10464        0.86806
C          6.50713        0.62088        0.91914
C          5.41965       -0.10542        0.45513
C          4.03529        0.33144        0.36306
C          3.05721       -0.45240       -0.28928
C          3.64066        1.56544        0.92975
C          1.74728       -0.03489       -0.37267
H          3.33404       -1.39445       -0.76349
C          2.33840        2.00329        0.84283
H          4.36126        2.17645        1.47022
C          1.36747        1.20626        0.19059
H          1.01454       -0.63347       -0.91239
H          2.04363        2.93962        1.31496
N          0.05373        1.64020        0.10209
C         -0.24234        3.02362        0.03153
C         -1.31763        3.53863        0.76954
C          0.53184        3.85965       -0.78589
C         -1.61138        4.89334        0.69811
H         -1.90337        2.88260        1.41371
C          0.23364        5.21361       -0.85994
H          1.34477        3.44347       -1.38144
C         -0.83457        5.72292       -0.11634
H         -2.43594        5.29868        1.28253
H          0.82419        5.86215       -1.50520
C         -1.01355        0.71402        0.07972
C         -2.09942        0.92968       -0.78340
C         -0.98728       -0.40183        0.93115
C         -3.14938        0.02349       -0.80119
H         -2.10243        1.78999       -1.45308
C         -2.04332       -1.30179        0.91270
H         -0.15739       -0.54085        1.62453
C         -3.12240       -1.09068        0.04677
H         -3.98445        0.18122       -1.48278
H         -2.03101       -2.15880        1.58509
I         -1.28394        7.76980       -0.23007
I         -4.72626       -2.45602        0.02738
H          9.61529       -1.93758        0.54760
H         10.69752       -5.96879       -0.76058
H          8.67567        0.28474        1.18132
H          6.44236        1.64771        1.27122
I         -7.52341       -4.84437        0.00342
