50
	Energy: -1700641.1299338
C        -10.36105        0.58421       -0.09808
C         -8.87930        0.46808       -0.10178
O        -11.11311       -0.34164        0.09449
O        -10.76654        1.83586       -0.33357
C         -8.10543        1.64700       -0.34346
N         -7.47154        2.59882       -0.53861
C         -8.33044       -0.75597        0.12482
C         -6.96221       -1.16388        0.18089
S         -5.57053       -0.12990       -0.02898
C         -6.56268       -2.47004        0.42048
C         -5.16542       -2.63847        0.42861
C         -4.47981       -1.45963        0.19315
C         -3.02936       -1.26025        0.13646
C         -2.45797       -0.16720       -0.53467
C         -2.16559       -2.17500        0.76175
C         -1.08244        0.00506       -0.58739
H         -3.09634        0.55019       -1.05406
C         -0.78993       -2.00427        0.72328
H         -2.57617       -3.01687        1.32013
C         -0.22555       -0.91130        0.04412
H         -0.66278        0.85198       -1.13021
H         -0.14215       -2.71581        1.23532
N          1.16905       -0.73288        0.00212
C          2.04007       -1.84946       -0.01567
C          3.19969       -1.84923        0.76950
C          1.76036       -2.95823       -0.82494
C          4.06985       -2.93573        0.74577
H          3.42322       -0.99033        1.40336
C          2.61640       -4.05592       -0.83996
H          0.86480       -2.96184       -1.44741
C          3.76951       -4.03645       -0.05569
H          4.96796       -2.92267        1.36254
H          2.38697       -4.91167       -1.47430
C          1.72580        0.57331        0.00362
C          2.77908        0.88731       -0.86280
C          1.23873        1.55350        0.87605
C          3.34465        2.15974       -0.85197
H          3.16008        0.12754       -1.54665
C          1.78914        2.83271        0.87516
H          0.42280        1.31265        1.55887
C          2.84622        3.13447        0.01428
H          4.16592        2.38912       -1.53109
H          1.39933        3.58612        1.55985
I          5.07579       -5.69263       -0.08080
I          3.69872        5.07069        0.02472
H         -9.05707       -1.55649        0.29286
H        -11.73999        1.83688       -0.31748
H         -7.28027       -3.27521        0.57462
H         -4.67047       -3.59621        0.57573
Cl         5.06908        8.14075        0.03721
