49
	Energy: -1617948.9019436
C         -8.77330        0.14303       -0.21908
C         -7.28127        0.17897       -0.18921
O         -9.42574       -0.82967        0.06910
O         -9.28978        1.31141       -0.60150
C         -6.62320        1.39714       -0.55399
N         -6.08045        2.37899       -0.84704
C         -6.62324       -0.94662        0.18269
C         -5.21360       -1.19764        0.29777
S         -3.94802       -0.05410       -0.03270
C         -4.68898       -2.41871        0.70010
C         -3.28642       -2.43288        0.74320
C         -2.72412       -1.21963        0.36852
C         -1.31324       -0.88536        0.29107
C         -0.87202        0.32405       -0.29482
C         -0.34208       -1.77826        0.80381
C          0.46647        0.63428       -0.36847
H         -1.59174        1.01936       -0.72784
C          1.00022       -1.48891        0.72703
H         -0.65033       -2.69881        1.29598
C          1.43024       -0.27311        0.13800
H          0.78838        1.55076       -0.86107
H          1.73116       -2.16988        1.16095
N          2.77760        0.02292        0.05585
C          3.74110       -1.01187       -0.04679
C          4.92683       -0.92656        0.69687
C          3.50770       -2.09647       -0.90464
C          5.87387       -1.93460        0.59298
H          5.09171       -0.08431        1.36877
C          4.45712       -3.10270       -1.01186
H          2.59800       -2.13415       -1.50406
C          5.62948       -3.01238       -0.26042
H          6.79329       -1.89272        1.17455
H          4.29814       -3.94444       -1.68383
C          3.22832        1.36651        0.06489
C          4.24694        1.75779       -0.81618
C          2.66546        2.28383        0.96419
C          4.69288        3.07093       -0.80735
H          4.66810        1.03913       -1.51917
C          3.11445        3.59670        0.97557
H          1.89938        1.96008        1.66894
C          4.12174        3.97747        0.08810
H          5.47174        3.39583       -1.49520
H          2.69816        4.31800        1.67684
Cl         6.82065       -4.27036       -0.39609
Cl         4.68520        5.62090        0.10133
H         -7.26648       -1.79495        0.43325
H        -10.25976        1.22283       -0.60135
H         -5.32066       -3.26966        0.94994
H         -2.70410       -3.30771        1.02305
