50
	Energy: -1803699.7071512
C          9.17623       -3.74036       -0.12635
C          7.88012       -3.01309       -0.12116
O         10.24618       -3.22051        0.08544
O          9.02056       -5.04078       -0.39335
C          6.68448       -3.75219       -0.38836
N          5.71081       -4.34485       -0.60422
C          7.89455       -1.67729        0.13681
C          6.82411       -0.73369        0.20863
S          5.12772       -1.08306       -0.01505
C          7.00908        0.61451        0.47555
C          5.81195        1.35407        0.49263
C          4.69511        0.57735        0.23765
C          3.29595        1.00841        0.18099
C          2.31540        0.25512       -0.48434
C          2.90019        2.20717        0.79803
C          0.99620        0.68085       -0.54077
H          2.58928       -0.66900       -0.99713
C          1.58204        2.63511        0.75480
H          3.62817        2.80086        1.35176
C          0.60844        1.87949        0.07979
H          0.25796        0.08712       -1.07982
H          1.29590        3.55881        1.25796
N         -0.72830        2.31414        0.02926
C         -1.03538        3.69648       -0.02980
C         -2.08667        4.21596        0.73620
C         -0.30349        4.55323       -0.86213
C         -2.40866        5.56801        0.66882
H         -2.65865        3.55431        1.38751
C         -0.60653        5.90991       -0.91988
H          0.51001        4.15385       -1.46864
C         -1.66087        6.40389       -0.15600
H         -3.22690        5.97206        1.26389
H         -0.03768        6.57643       -1.56720
C         -1.79000        1.37284        0.02188
C         -2.86422        1.53225       -0.86169
C         -1.77982        0.28488        0.90358
C         -3.91884        0.62427       -0.86117
H         -2.87469        2.37629       -1.55224
C         -2.82117       -0.63788        0.89582
H         -0.94922        0.16063        1.59927
C         -3.88569       -0.45739        0.01559
H         -4.75566        0.74827       -1.54778
H         -2.81432       -1.48473        1.58133
Cl        -2.05533        8.10801       -0.23700
Cl        -5.20394       -1.60931        0.01349
H          8.88949       -1.26038        0.31953
H          9.90355       -5.45074       -0.38058
H          7.99756        1.04109        0.64279
H          5.76521        2.42798        0.66067
I         -8.04231       -4.25675        0.02880
