50
	Energy: -1852882.8384576
C         -9.76784        1.03500       -0.24708
C         -8.28772        0.84644       -0.22243
O        -10.55699        0.19382        0.10636
O        -10.10645        2.24094       -0.70518
C         -7.45761        1.92418       -0.66912
N         -6.77693        2.79128       -1.02881
C         -7.80205       -0.33879        0.22265
C         -6.44549       -0.79139        0.35352
S         -5.02379        0.12612       -0.04353
C         -6.10733       -2.05076        0.82895
C         -4.72195       -2.27413        0.87344
C         -3.98676       -1.18475        0.42783
C         -2.53994       -1.07177        0.33351
C         -1.71270       -2.07959        0.88119
C         -1.92550        0.03052       -0.30244
C         -0.34152       -1.99954        0.79302
H         -2.15320       -2.92385        1.40827
C         -0.55466        0.13115       -0.38901
H         -2.53440        0.80963       -0.76207
C          0.26186       -0.88809        0.15644
H          0.28131       -2.76590        1.25248
H         -0.09969        0.96762       -0.91794
N          1.64172       -0.79983        0.06688
C          2.28834        0.45733        0.05169
C          3.37376        0.66535       -0.81397
C          1.85495        1.47686        0.91402
C          4.01734        1.89307       -0.82159
H          3.69134       -0.12699       -1.49185
C          2.50488        2.70242        0.90758
H          1.03379        1.29409        1.60747
C          3.58261        2.90543        0.04048
H          4.85091        2.06833       -1.50025
H          2.18686        3.49256        1.58632
C          2.43431       -1.97168       -0.00984
C          3.62325       -2.05036        0.72988
C          2.03117       -3.03132       -0.83536
C          4.40367       -3.19485        0.65289
H          3.91866       -1.22608        1.37913
C          2.81421       -4.17441       -0.91583
H          1.12278       -2.94534       -1.43190
C          3.99178       -4.24630       -0.16913
H          5.32058       -3.27310        1.23477
H          2.51868       -4.99700       -1.56509
Br         4.48574        4.57150        0.04159
Br         5.06114       -5.80554       -0.27777
H         -8.56252       -1.06254        0.52951
H        -11.07849        2.30103       -0.69630
H         -6.85820       -2.77988        1.12924
H         -4.27580       -3.20779        1.20783
Cl         6.17322        7.40060        0.05232
