50
	Energy: -1454810.9143190
C          8.64675        1.40644        0.20080
C          7.20105        1.05322        0.16272
O          9.43414        0.38323       -0.13982
O          9.05189        2.50119        0.50708
C          6.31848        2.12579        0.51727
N          5.59858        2.98835        0.80223
C          6.77048       -0.18653       -0.18196
C          5.43142       -0.70172       -0.27255
S          3.97204        0.18563        0.05174
C          5.14523       -2.00690       -0.64635
C          3.76923       -2.28907       -0.67312
C          2.99088       -1.19918       -0.31398
C          1.53901       -1.13568       -0.22996
C          0.88365       -0.04917        0.39030
C          0.75215       -2.17591       -0.77419
C         -0.49122        0.00610        0.46414
H          1.46300        0.75240        0.84959
C         -0.62261       -2.14117       -0.69838
H          1.22675       -3.00717       -1.29270
C         -1.26720       -1.04466       -0.07840
H         -0.97884        0.83164        0.98114
H         -1.21584       -2.93132       -1.15702
N         -2.65201       -1.00009       -0.00377
C         -3.40577       -2.19325        0.09131
C         -4.59243       -2.32136       -0.64889
C         -2.96719       -3.22775        0.93410
C         -5.33401       -3.48882       -0.55643
H         -4.91202       -1.51652       -1.31064
C         -3.70995       -4.39461        1.03079
H         -2.06285       -3.10032        1.52903
C         -4.87627       -4.50049        0.28132
H         -6.24956       -3.62900       -1.12845
H         -3.40724       -5.20997        1.68553
C         -3.33473        0.23819       -0.02183
C         -4.42772        0.43699        0.83776
C         -2.92194        1.24773       -0.90711
C         -5.10007        1.64891        0.82117
H         -4.72640       -0.34938        1.53079
C         -3.59561        2.45939       -0.92732
H         -2.09478        1.06689       -1.59350
C         -4.66886        2.63437       -0.06091
H         -5.94069        1.84338        1.48502
H         -3.31192        3.25770       -1.61094
F         -5.59628       -5.62965        0.37328
F         -5.32155        3.80701       -0.07873
H          5.92512       -2.72750       -0.88784
H          3.36090       -3.26437       -0.92828
H          7.54855       -0.91155       -0.43068
H         10.35515        0.69420       -0.09058
Cl        -6.91661        6.67272       -0.12226
