49
	Energy: -1563757.9453447
C         -9.50585       -0.09326       -0.26065
C         -8.01469       -0.03482       -0.22409
O        -10.14641       -1.06150        0.06657
O        -10.03619        1.04964       -0.69723
C         -7.37138        1.17489       -0.63977
N         -6.84090        2.15023       -0.97412
C         -7.34305       -1.13343        0.20056
C         -5.93062       -1.35832        0.33380
S         -4.68031       -0.20907       -0.03281
C         -5.39029       -2.55491        0.78591
C         -3.98802       -2.54610        0.83722
C         -3.44150       -1.33936        0.42022
C         -2.03532       -0.98685        0.33853
C         -1.05291       -1.85396        0.87371
C         -1.60951        0.21492       -0.27397
C          0.28543       -1.54804        0.79224
H         -1.34902       -2.76760        1.38577
C         -0.27528        0.54221       -0.35171
H         -2.33765        0.89060       -0.72364
C          0.69967       -0.34018        0.17657
H          1.02499       -2.20919        1.24200
H          0.03534        1.45181       -0.86394
N          2.04348       -0.02813        0.08924
C          2.47660        1.32089        0.07684
C          3.49421        1.71072       -0.80587
C          1.89671        2.24607        0.95696
C          3.92244        3.03029       -0.81783
H          3.92866        0.98601       -1.49455
C          2.32768        3.56545        0.94744
H          1.13159        1.92447        1.66386
C          3.33479        3.94566        0.05866
H          4.70073        3.34781       -1.50989
H          1.89361        4.28858        1.63604
C          3.01835       -1.05363        0.00302
C          4.20361       -0.94434        0.74393
C          2.79417       -2.15535       -0.83499
C          5.15907       -1.94697        0.65868
H          4.36182       -0.08861        1.40039
C          3.75183       -3.15620       -0.92361
H          1.88470       -2.21162       -1.43350
C          4.92383       -3.04400       -0.17357
H          6.07608       -1.88126        1.24213
H          3.59363       -4.00948       -1.58108
Br         3.92405        5.74563        0.04503
Br         6.22992       -4.41041       -0.29055
H         -7.97560       -1.97923        0.48455
H        -11.00482        0.94723       -0.69908
H         -6.01075       -3.40508        1.06472
H         -3.39469       -3.40049        1.15436
