50
	Energy: -1907068.8166788
C         -9.04124        1.21888       -0.22034
C         -7.56826        0.97929       -0.20455
O         -9.85707        0.40286        0.13134
O         -9.34029        2.43887       -0.66850
C         -6.70394        2.03205       -0.64610
N         -5.99617        2.87881       -1.00188
C         -7.12191       -0.22593        0.22774
C         -5.78095       -0.72592        0.34791
S         -4.33196        0.14732       -0.04858
C         -5.48234       -1.99980        0.81149
C         -4.10488       -2.26890        0.84769
C         -3.33608       -1.20036        0.40780
C         -1.88716       -1.13129        0.30904
C         -1.24238       -0.03578       -0.30884
C         -1.08794       -2.17337        0.83439
C          0.13020        0.02756       -0.39654
H         -1.82919        0.76927       -0.75211
C          0.28479       -2.13099        0.74387
H         -1.55097       -3.01517        1.34596
C          0.91872       -1.02446        0.12826
H          0.60777        0.86101       -0.91002
H          0.88643       -2.92351        1.18693
N          2.30015       -0.97016        0.04067
C          3.06406       -2.15798       -0.06276
C          4.25808       -2.27750        0.66392
C          2.62803       -3.19420       -0.90194
C          5.00917       -3.43882        0.56076
H          4.57976       -1.47162        1.32354
C          3.38144       -4.35411       -1.00792
H          1.71704       -3.07621       -1.48876
C          4.56316       -4.46567       -0.27368
H          5.93005       -3.55476        1.12993
H          3.06469       -5.16195       -1.66550
C          2.97348        0.27406        0.05175
C          4.05265        0.48593       -0.82018
C          2.56346        1.27858        0.94220
C          4.70885        1.70709       -0.81250
H          4.35376       -0.29612       -1.51717
C          3.22429        2.49747        0.95170
H          1.74798        1.09033        1.64070
C          4.28925        2.70472        0.07182
H          5.53584        1.89424       -1.49572
H          2.92682        3.28220        1.64548
Cl         5.50652       -5.91873       -0.40558
Cl         5.10760        4.23537        0.07803
H         -7.90569       -0.92553        0.53183
H        -10.30967        2.53228       -0.65437
H         -6.25533       -2.70619        1.10995
H         -3.68835       -3.21900        1.17381
Cl         6.60917        7.27547        0.07629
