50
	Energy: -1454939.0987531
C          8.67749        1.69714        0.12185
C          7.24993        1.29703        0.09418
O          9.50918        0.66356       -0.05503
O          9.05009        2.83511        0.28651
C          6.32609        2.37644        0.27612
N          5.57507        3.24796        0.42208
C          6.86339        0.00428       -0.08993
C          5.55401       -0.56702       -0.14559
S          4.04290        0.29671        0.00291
C          5.31906       -1.92125       -0.33155
C          3.95345       -2.25959       -0.34640
C          3.12475       -1.16462       -0.17095
C          1.66110       -1.14304       -0.13366
C          0.94929       -0.08113        0.44738
C          0.92232       -2.20504       -0.68261
C         -0.43700       -0.07805        0.48802
H          1.48646        0.75089        0.90702
C         -0.46347       -2.20763       -0.65410
H          1.43864       -3.03184       -1.17155
C         -1.17006       -1.14379       -0.06350
H         -0.96084        0.75114        0.96290
H         -1.01082       -3.03540       -1.10457
N         -2.57116       -1.14757       -0.02815
C         -3.29271       -2.37027        0.03271
C         -4.40155       -2.56961       -0.79821
C         -2.91509       -3.37300        0.93450
C         -5.13093       -3.75377       -0.72915
H         -4.69573       -1.78749       -1.49898
C         -3.62398       -4.56946        0.99559
H         -2.05755       -3.21422        1.58926
C         -4.72159       -4.73222        0.16374
H         -5.99790       -3.92595       -1.36588
H         -3.34404       -5.36178        1.68882
C         -3.30205        0.07151       -0.02438
C         -4.34884        0.25717        0.88617
C         -2.99366        1.08510       -0.94014
C         -5.08594        1.43852        0.88225
H         -4.58884       -0.53312        1.59830
C         -3.70973        2.27875       -0.93740
H         -2.18430        0.93700       -1.65592
C         -4.74571        2.42810       -0.02728
H         -5.90558        1.60042        1.58130
H         -3.48337        3.07983       -1.64005
F         -5.42216       -5.89148        0.22809
F         -5.45331        3.58382       -0.02913
H          6.13071       -2.63964       -0.44237
H          3.58231       -3.27639       -0.45615
H          7.67317       -0.71811       -0.21648
H         10.41572        1.01554       -0.02404
Cl        -7.90344        7.05596       -0.04024
