50
	Energy: -1700512.9367585
C        -10.32413        0.64850       -0.19715
C         -8.83816        0.51440       -0.19406
O        -11.07791       -0.23446        0.13100
O        -10.71252        1.85787       -0.60414
C         -8.05326        1.63705       -0.61086
N         -7.40875        2.54060       -0.94669
C         -8.30403       -0.66614        0.20626
C         -6.93039       -1.07086        0.31216
S         -5.54799       -0.08770       -0.06801
C         -6.53967       -2.32852        0.74970
C         -5.14568       -2.49790        0.78077
C         -4.45783       -1.36892        0.36127
C         -3.01598       -1.19268        0.26888
C         -2.45015       -0.07658       -0.38598
C         -2.14761       -2.14908        0.84250
C         -1.08426        0.08929       -0.46076
H         -3.09212        0.66046       -0.86937
C         -0.78023       -2.00312        0.76709
H         -2.55342       -3.00174        1.38397
C         -0.22634       -0.87484        0.11767
H         -0.66384        0.93548       -1.00286
H         -0.12523       -2.72825        1.24846
N          1.15063       -0.71387        0.05056
C          2.00314       -1.84399       -0.00013
C          3.17643       -1.85705        0.76740
C          1.67252       -2.92981       -0.82342
C          4.01380       -2.96300        0.72044
H          3.41487       -1.01398        1.41610
C          2.51416       -4.03310       -0.87374
H          0.77437       -2.89518       -1.44046
C          3.67773       -4.04444       -0.09951
H          4.91674       -2.98330        1.32882
H          2.26758       -4.87160       -1.52336
C          1.72819        0.57423        0.04081
C          2.82954        0.83301       -0.79153
C          1.21123        1.57984        0.87411
C          3.40138        2.09615       -0.79588
H          3.21258        0.05172       -1.44833
C          1.79295        2.83916        0.86889
H          0.38005        1.36009        1.54461
C          2.88665        3.10087        0.03418
H          4.24482        2.30136       -1.45428
H          1.40259        3.61323        1.52868
I          4.94552       -5.71567       -0.16821
I          3.77197        5.01200        0.03422
H         -9.03437       -1.42737        0.49533
H        -11.68596        1.88080       -0.58286
H         -7.25918       -3.09482        1.03384
H         -4.65958       -3.42225        1.08447
Cl         5.15714        7.96962        0.03710
