50
	Energy: -1803572.6031002
C         -9.20395       -3.63277        0.20122
C         -7.89542       -2.91518        0.18277
O        -10.25389       -3.12034       -0.09911
O         -9.06786       -4.90185        0.58781
C         -6.71910       -3.63723        0.56350
N         -5.76097       -4.21399        0.86982
C         -7.88637       -1.61338       -0.19666
C         -6.79129       -0.69073       -0.30802
S         -5.12557       -1.04469        0.03805
C         -6.94457        0.62590       -0.72083
C         -5.73652        1.33977       -0.75935
C         -4.64630        0.57369       -0.37053
C         -3.25686        0.99058       -0.28531
C         -2.27759        0.17254        0.32340
C         -2.85653        2.24028       -0.81410
C         -0.96298        0.57295        0.40325
H         -2.55899       -0.78205        0.76894
C         -1.54886        2.66010       -0.73237
H         -3.57824        2.87640       -1.32329
C         -0.57639        1.83054       -0.12123
H         -0.23048       -0.05173        0.91265
H         -1.25024        3.60783       -1.17844
N          0.74005        2.24731       -0.03526
C          1.05675        3.62581        0.05364
C          2.13027        4.13598       -0.69082
C          0.30715        4.45921        0.89665
C          2.44553        5.48373       -0.60262
H          2.69744        3.48103       -1.35218
C          0.62548        5.80659        0.98816
H         -0.50278        4.04466        1.49708
C          1.68972        6.30548        0.23575
H          3.26553        5.89978       -1.18560
H          0.06306        6.46468        1.64841
C          1.79971        1.30861       -0.03037
C          2.87919        1.49217        0.84710
C          1.76999        0.21792       -0.91275
C          3.92131        0.57789        0.85123
H          2.88472        2.33527        1.53794
C          2.81578       -0.69328       -0.91085
H          0.94437        0.10503       -1.61558
C          3.88151       -0.50747       -0.02785
H          4.75843        0.69662        1.53736
H          2.81546       -1.53655       -1.59973
Cl         2.08856        7.99299        0.34941
Cl         5.19095       -1.64873       -0.02700
H         -8.86584       -1.20360       -0.45918
H         -9.95080       -5.31285        0.57776
H         -7.91498        1.04540       -0.98132
H         -5.66726        2.38658       -1.04583
I          7.98020       -4.18165       -0.03695
