50
	Energy: -1749382.8364035
C          9.64921       -3.83440       -0.23777
C          8.33268       -3.13211       -0.21021
O         10.69256       -3.31577        0.07476
O          9.52868       -5.09774       -0.64780
C          7.16549       -3.86091       -0.60590
N          6.21480       -4.44349       -0.92419
C          8.30809       -1.83689        0.19062
C          7.20254       -0.92843        0.31421
S          5.54142       -1.29677       -0.03923
C          7.33973        0.38370        0.74632
C          6.12311        1.08274        0.79339
C          5.04265        0.30961        0.39218
C          3.64774        0.71054        0.31185
C          3.23155        1.94753        0.85730
C          2.67946       -0.11139       -0.30837
C          1.91818        2.35146        0.78138
H          3.94529        2.58620        1.37452
C          1.35949        0.27302       -0.38246
H          2.97308       -1.05596       -0.76720
C          0.95687        1.51747        0.15977
H          1.60742        3.28950        1.23960
H          0.63486       -0.35396       -0.90026
N         -0.36618        1.91771        0.08033
C         -1.41195        0.96497        0.06947
C         -2.49918        1.14315       -0.79983
C         -1.36068       -0.13767        0.93626
C         -3.52527        0.21039       -0.81304
H         -2.52197        1.99562       -1.47888
C         -2.39106       -1.06652        0.92456
H         -0.53044       -0.24630        1.63446
C         -3.46514       -0.88966        0.04804
H         -4.36424        0.33040       -1.49690
H         -2.36695       -1.91773        1.60354
C         -0.70005        3.29265        0.00257
C         -1.77827        3.78373        0.75276
C          0.03787        4.14170       -0.83485
C         -2.11062        5.12859        0.67537
H         -2.33601        3.11683        1.41037
C         -0.29768        5.48609       -0.91596
H          0.85191        3.74192       -1.43992
C         -1.36712        5.96722       -0.15826
H         -2.93590        5.52419        1.26534
H          0.25893        6.15118       -1.57428
Br        -4.86735       -2.16680        0.02914
Br        -1.82605        7.80115       -0.26854
H          9.28237       -1.42054        0.46204
H         10.41630       -5.49861       -0.64272
H          8.30486        0.81064        1.01429
H          6.04083        2.12432        1.09513
I         -7.52623       -4.67967        0.01062
